33
Title Card Required
 C	     1.09944300	     0.42642700	    -0.05105500
 C	     0.72017000	    -0.83071200	    -0.41831700
 C	    -0.72001500	    -0.83068600	    -0.41869900
 C	    -1.09943800	     0.42645800	    -0.05160900
 O	    -0.00004400	     1.20172000	     0.17519200
 H	     1.39292900	    -1.64938400	    -0.65716500
 H	    -1.39267600	    -1.64934100	    -0.65788100
 C	    -2.42678700	     1.07728600	     0.13851800
 H	    -2.51633400	     1.46169300	     1.17828800
 H	    -2.51544300	     1.96438100	    -0.52642100
 C	    -4.73297600	     0.62957900	     0.00870700
 H	    -4.88705400	     1.53259200	    -0.61847500
 H	    -4.94373700	     0.92221300	     1.05755300
 C	    -5.69778700	    -0.44979300	    -0.40872000
 C	    -6.25631400	    -1.39036300	     0.56882600
 H	    -5.60503200	    -0.77262500	    -1.45562700
 H	    -5.95143000	    -1.31474800	     1.62110200
 H	    -6.57406200	    -2.38885800	     0.24212300
 O	    -7.02667700	    -0.30212100	     0.06843300
 C	     2.42672100	     1.07712700	     0.14001300
 H	     2.51628600	     1.46001000	     1.18035000
 H	     2.51521500	     1.96520500	    -0.52361800
 O	     3.42627700	     0.13528900	    -0.13981300
 O	    -3.42623800	     0.13493800	    -0.13995700
 C	     4.73298100	     0.62971800	     0.01002400
 H	     4.88715600	     1.53382400	    -0.61554400
 H	     4.94347200	     0.92052500	     1.05943000
 C	     5.69792800	    -0.44890500	    -0.40906100
 C	     6.25613300	    -1.39123900	     0.56697400
 H	     5.60548800	    -0.76983800	    -1.45658000
 H	     6.57396000	    -2.38916000	     0.23860300
 H	     5.95093700	    -1.31746900	     1.61929200
 O	     7.02667800	    -0.30212800	     0.06876500

