31
Title Card Required
 C	     1.08178600	     0.20386700	    -0.06750200
 C	     0.69698000	    -1.11996400	    -0.08506500
 C	    -0.72207200	    -1.11525200	    -0.01010700
 C	    -1.09294600	     0.21126600	     0.04705700
 O	    -0.00166700	     1.00755600	     0.01200400
 H	     1.36589800	    -1.97400400	    -0.14534100
 H	    -1.40086700	    -1.96368400	    -0.00225700
 C	    -4.72573300	     0.44673900	     0.23904600
 H	    -4.96211500	     0.97214400	    -0.69969100
 H	    -4.81262600	     1.17111900	     1.06550500
 C	    -5.64461600	    -0.71971900	     0.44198700
 C	    -7.01581300	    -0.69819500	    -0.08475400
 H	    -5.42954800	    -1.32721800	     1.33289800
 H	    -7.36914400	     0.17829200	    -0.64491600
 H	    -7.79982300	    -1.26665600	     0.43208300
 O	    -6.00060900	    -1.46501200	    -0.71438800
 O	     3.37531200	    -0.07556400	    -0.19445900
 O	    -3.38561600	    -0.05518600	     0.18463100
 C	     4.71667000	     0.42135500	    -0.25881000
 H	     4.81635300	     1.10843600	    -1.11447700
 H	     4.95924800	     0.99105800	     0.65200700
 C	     5.62698900	    -0.76802400	    -0.40007700
 C	     6.22996100	    -1.40752900	     0.77600600
 H	     5.47028100	    -1.37167500	    -1.30569900
 H	     6.51360500	    -2.46684800	     0.73147200
 H	     5.99038700	    -1.02604300	     1.77751700
 O	     6.98238700	    -0.53123300	    -0.05515600
 C	     2.40192900	     0.85572100	    -0.11678800
 O	     2.59754000	     2.04381900	    -0.09012200
 C	    -2.40771700	     0.87107400	     0.12789400
 O	    -2.59411700	     2.06150100	     0.14093600

