45
Title Card Required
 C	    -4.47154800	     0.32474900	     0.10585700
 C	    -3.83621400	    -0.84141100	    -0.24706200
 C	    -2.44440800	    -0.53356900	    -0.32664400
 C	    -2.33862800	     0.79823700	    -0.01342500
 O	    -3.55215700	     1.32376200	     0.24902700
 H	    -4.32269800	    -1.79679900	    -0.42476000
 H	    -1.62003700	    -1.19366100	    -0.57995000
 C	    -1.17345600	     1.72441000	     0.06534700
 H	    -1.21901500	     2.45784500	    -0.76832500
 H	    -1.22827900	     2.31368800	     1.00459800
 O	    -6.66394700	    -0.41208800	     0.16831700
 C	    -8.06346800	    -0.20993300	     0.38062300
 H	    -8.23297600	     0.18987700	     1.39352100
 H	    -8.46030000	     0.52793200	    -0.33459900
 C	    -8.73912000	    -1.54168600	     0.19753900
 C	    -9.29299000	    -1.94157800	    -1.10186500
 H	    -8.42021700	    -2.32734300	     0.89770700
 H	    -9.38084400	    -3.00721900	    -1.34964600
 H	    -9.18922600	    -1.26566000	    -1.96112500
 O	   -10.13471000	    -1.48031600	    -0.05109400
 C	     4.47151600	     0.32468800	    -0.10573900
 C	     3.83629000	    -0.84127900	     0.24801600
 C	     2.44452000	    -0.53337200	     0.32792700
 C	     2.33864500	     0.79827300	     0.01405000
 O	     3.55209200	     1.32363400	    -0.24911900
 H	     4.32282000	    -1.79658500	     0.42602900
 H	     1.62023100	    -1.19334000	     0.58183000
 C	     1.17346500	     1.72444500	    -0.06468000
 H	     1.21880500	     2.45761400	     0.76924100
 H	     1.22851300	     2.31401100	    -1.00372700
 O	     6.66389400	    -0.41219300	    -0.16848800
 O	    -0.00000300	     0.95934900	     0.00010500
 C	     8.06334700	    -0.21016400	    -0.38136700
 H	     8.23253000	     0.18899000	    -1.39457900
 H	     8.46039900	     0.52816900	     0.33325000
 C	     8.73906700	    -1.54179300	    -0.19763500
 C	     9.29335800	    -1.94083600	     1.10185000
 H	     8.41994600	    -2.32790700	    -0.89719000
 H	     9.38130000	    -3.00631500	     1.35029600
 H	     9.18986600	    -1.26435900	     1.96070400
 O	    10.13473700	    -1.48025200	     0.05050900
 C	     5.87511100	     0.67176600	    -0.34538100
 O	     6.28765400	     1.76282600	    -0.65466500
 C	    -5.87522000	     0.67197500	     0.34482300
 O	    -6.28786200	     1.76321900	     0.65332300

