51
Title Card Required
 C	    -1.08787100	    -0.18816800	    -0.76362900
 C	    -0.70786800	    -0.12307500	     0.54847700
 C	     0.70778500	     0.12345300	     0.54850600
 C	     1.08786300	     0.18844500	    -0.76358300
 O	     0.00001600	     0.00010700	    -1.56519700
 H	    -1.36962100	    -0.24224000	     1.40234500
 H	     1.36949700	     0.24271000	     1.40239400
 C	     2.39492400	     0.45979300	    -1.43702600
 H	     2.38182400	    -0.02135600	    -2.44143600
 H	     2.48967600	     1.54295600	    -1.62570200
 N	     3.51865600	     0.04748700	    -0.61748000
 C	     4.75323000	     0.79816900	    -0.83995400
 H	     5.61836700	     0.12383400	    -0.78132700
 H	     4.77184700	     1.25000000	    -1.85110400
 C	     3.68562200	    -1.38898600	    -0.50400200
 H	     4.22571900	    -1.82600400	    -1.37299800
 H	     2.68448500	    -1.84884500	    -0.47714900
 C	     4.39698000	    -1.77778600	     0.76811500
 C	     5.26177900	    -2.96150400	     0.85165600
 H	     3.90722700	    -1.41954600	     1.68450800
 H	     5.41243500	    -3.58484400	    -0.03970700
 H	     5.37769700	    -3.48360200	     1.81000700
 C	     4.92722400	     1.88146000	     0.20142600
 C	     5.74345900	     1.65322200	     1.39964100
 H	     4.10054000	     2.60572400	     0.26654900
 H	     6.22879800	     0.67809800	     1.53216600
 H	     5.52091500	     2.20589600	     2.32217700
 O	     5.82107300	    -1.65536800	     0.78725700
 O	     6.22513700	     2.44570200	     0.31359700
 C	    -2.39489700	    -0.45958100	    -1.43713000
 H	    -2.38177000	     0.02162100	    -2.44152100
 N	    -3.51868800	    -0.04738800	    -0.61763400
 C	    -4.75315400	    -0.79823300	    -0.83998400
 C	    -3.68580700	     1.38904000	    -0.50406000
 H	    -5.61836600	    -0.12399500	    -0.78132600
 H	    -4.77181200	    -1.25013900	    -1.85110200
 C	    -4.92701500	    -1.88151200	     0.20143400
 H	    -4.22606700	     1.82606100	    -1.37296500
 H	    -2.68472300	     1.84902200	    -0.47731500
 C	    -4.39706000	     1.77773100	     0.76815900
 C	    -5.74340500	    -1.65341800	     1.39956700
 H	    -4.10018800	    -2.60560600	     0.26667300
 O	    -6.22482700	    -2.44600700	     0.31348500
 C	    -5.26198800	     2.96135100	     0.85179700
 H	    -3.90717100	     1.41954800	     1.68450100
 O	    -5.82113600	     1.65515100	     0.78745400
 H	    -6.22893800	    -0.67838300	     1.53204200
 H	    -5.52083100	    -2.20605200	     2.32211900
 H	    -5.41281500	     3.58467700	    -0.03954500
 H	    -5.37788500	     3.48342400	     1.81016500
 H	    -2.48953700	    -1.54273900	    -1.62588300

