64
Title Card Required
 C	    -1.25395100	    -1.30112900	    -0.23386000
 C	    -1.54645300	    -0.57709700	     0.89024700
 C	    -2.96793800	    -0.36687300	     0.88458800
 C	    -3.44317500	    -0.98220500	    -0.23988500
 O	    -2.40819700	    -1.54889400	    -0.92227800
 H	    -0.83059600	    -0.23478500	     1.63309300
 H	    -3.56965800	     0.17082500	     1.61251000
 C	    -4.81516700	    -1.15700400	    -0.80802900
 H	    -4.72723000	    -1.28658100	    -1.91068000
 H	    -5.24812500	    -2.09875200	    -0.42948100
 N	    -5.69896000	    -0.07183900	    -0.42606400
 C	    -7.11628800	    -0.42447200	    -0.36111000
 H	    -7.72752200	     0.40703800	    -0.73736000
 H	    -7.34237200	    -1.29909000	    -1.00208400
 C	    -5.41086200	     1.19448500	    -1.07225000
 H	    -5.85039300	     1.26344600	    -2.09201000
 H	    -4.31779400	     1.28234900	    -1.18176500
 C	    -5.87990400	     2.36897600	    -0.25002900
 C	    -6.33228400	     3.62401500	    -0.86349300
 H	    -5.46237600	     2.40151900	     0.76614900
 H	    -6.34520100	     3.71695700	    -1.95755800
 H	    -6.21671100	     4.56888300	    -0.31725600
 C	    -7.54061700	    -0.71641000	     1.06121700
 C	    -8.16221200	     0.32178400	     1.89178600
 H	    -6.97315700	    -1.51392500	     1.56528900
 H	    -8.31507300	     1.32093400	     1.46473200
 H	    -8.05607700	     0.27973400	     2.98403500
 O	    -7.26809100	     2.70355800	    -0.31594900
 O	    -8.93792000	    -0.72793300	     1.31229400
 C	     4.78981400	    -1.13893400	    -0.86045000
 H	     4.86447800	    -2.21772100	    -0.59346100
 N	     5.71678700	    -0.30019300	    -0.12437800
 C	     7.05888500	    -0.21338100	    -0.69765800
 C	     5.67451700	    -0.47596300	     1.31478600
 H	     7.80976800	    -0.20186200	     0.10404900
 H	     7.28345800	    -1.09533000	    -1.32899600
 C	     7.22165600	     1.04862300	    -1.51568300
 H	     6.27270900	    -1.34975000	     1.65628100
 H	     4.62829400	    -0.66290700	     1.60627300
 C	     6.13602400	     0.75788600	     2.04968700
 C	     7.81687800	     2.25613200	    -0.93114700
 H	     6.49801600	     1.17151900	    -2.33626500
 O	     8.55285900	     1.42756000	    -1.83185600
 C	     6.81268600	     0.68729900	     3.35094100
 H	     5.57177900	     1.66730400	     1.79954300
 O	     7.54578600	     0.96476300	     2.16421900
 H	     8.14371000	     2.23223200	     0.11604900
 H	     7.53767700	     3.24350900	    -1.32252400
 H	     7.00532500	    -0.29262400	     3.80749800
 H	     6.71783500	     1.52036600	     4.05911500
 H	     5.05006800	    -1.07685600	    -1.93097600
 C	    -0.01426700	    -1.93597900	    -0.78619700
 H	    -0.19625900	    -2.06864200	    -1.86912900
 C	     1.18778100	    -1.05138400	    -0.62186400
 C	     1.37636800	     0.28156200	    -0.37424800
 O	     2.40391200	    -1.65036800	    -0.79992800
 C	     2.79505100	     0.50926300	    -0.40652600
 H	     0.59354200	     1.01270300	    -0.19499300
 C	     3.37296100	    -0.70037800	    -0.67110600
 H	     3.32811600	     1.44354700	    -0.25165800
 C	     0.21399900	    -3.34007900	    -0.18519600
 H	     1.08940300	    -3.82121900	    -0.64376500
 H	     0.38174500	    -3.27038100	     0.90024200
 H	    -0.66998200	    -3.97011900	    -0.36095400

