61
Title Card Required
 N	    -4.80223600	    -0.46337700	    -0.78620200
 C	    -5.78372300	    -1.49557500	    -0.50964300
 H	    -6.39206300	    -1.65624800	    -1.41219200
 H	    -5.27292000	    -2.45170500	    -0.31171600
 C	    -5.15865300	     0.56648800	    -1.74054600
 H	    -5.85968100	     0.13489900	    -2.47102900
 H	    -4.26402600	     0.87414100	    -2.30727300
 C	    -5.80970000	     1.79443300	    -1.13615900
 C	    -6.69229800	     2.65894100	    -1.93008100
 H	    -5.27063400	     2.23812600	    -0.28778400
 H	    -6.89193900	     2.40643000	    -2.98060300
 H	    -6.77844100	     3.72537000	    -1.68502200
 C	    -6.71143200	    -1.17906300	     0.64847700
 C	    -8.07567400	    -0.69373700	     0.42633200
 H	    -6.20776800	    -0.91398500	     1.58910200
 H	    -8.41772300	    -0.52224100	    -0.60053700
 H	    -8.56323600	    -0.07303700	     1.18828800
 O	    -7.22503700	     1.75552600	    -0.96975300
 O	    -7.82718900	    -2.05033200	     0.79037300
 N	     4.80270400	     0.45963600	    -0.78856900
 C	     5.78532100	     1.49202100	    -0.51672800
 C	     5.15793900	    -0.57493800	    -1.73823600
 H	     6.39419500	     1.64748800	    -1.41982200
 H	     5.27561700	     2.44974800	    -0.32372000
 C	     6.71218900	     1.18009000	     0.64331000
 H	     5.85898500	    -0.14731100	    -2.47103500
 H	     4.26281600	    -0.88452600	    -2.30311200
 C	     5.80832300	    -1.80057100	    -1.12845500
 C	     8.07600400	     0.69218300	     0.42413800
 H	     6.20783000	     0.92014500	     1.58499300
 O	     7.82884100	     2.05080300	     0.78147400
 C	     6.68976000	    -2.66950000	    -1.91883200
 H	     5.26938700	    -2.23984700	    -0.27770200
 O	     7.22379200	    -1.76202600	    -0.96306000
 H	     8.41831600	     0.51530300	    -0.60172200
 H	     8.56253700	     0.07468200	     1.18934900
 H	     6.88898400	    -2.42206700	    -2.97064100
 H	     6.77519700	    -3.73484000	    -1.66883800
 C	     3.65658300	     0.34059700	    -0.00402600
 C	     2.73851600	    -0.72304500	    -0.18468100
 C	     3.34282900	     1.28512200	     0.99925800
 C	     1.57613300	    -0.81115800	     0.57574100
 H	     2.92342000	    -1.49663500	    -0.92819600
 C	     2.17323600	     1.17615100	     1.75188300
 H	     4.01160500	     2.11895500	     1.20525900
 C	     1.26295100	     0.13121200	     1.56449900
 H	     0.88744100	    -1.63996000	     0.39053600
 H	     1.97076900	     1.93317300	     2.51521200
 C	    -3.65623400	    -0.33950700	    -0.00224800
 C	    -2.73899600	     0.72393200	    -0.18825300
 C	    -3.34178100	    -1.27869300	     1.00581400
 C	    -1.57671800	     0.81680800	     0.57175300
 H	    -2.92447300	     1.49359400	    -0.93569200
 C	    -2.17229400	    -1.16499300	     1.75791400
 H	    -4.00993800	    -2.11196600	     1.21606200
 C	    -1.26282400	    -0.12030400	     1.56527300
 H	    -0.88866700	     1.64520200	     0.38236400
 H	    -1.96926300	    -1.91797200	     2.52508200
 C	     0.00004800	     0.00800400	     2.39145500
 H	     0.07369900	    -0.86736300	     3.05958400
 H	    -0.07358800	     0.88747300	     3.05417000

